# generated using pymatgen
data_Mn2VGa
_symmetry_space_group_name_H-M   'P 1'
_cell_length_a   4.30981583
_cell_length_b   4.30981583
_cell_length_c   60.95000000
_cell_angle_alpha   90.00000000
_cell_angle_beta   90.00000000
_cell_angle_gamma   90.00000000
_symmetry_Int_Tables_number   1
_chemical_formula_structural   Mn2VGa
_chemical_formula_sum   'Mn20 V10 Ga10'
_cell_volume   1132.11653688
_cell_formula_units_Z   10
loop_
 _symmetry_equiv_pos_site_id
 _symmetry_equiv_pos_as_xyz
  1  'x, y, z'
loop_
 _atom_site_type_symbol
 _atom_site_label
 _atom_site_symmetry_multiplicity
 _atom_site_fract_x
 _atom_site_fract_y
 _atom_site_fract_z
 _atom_site_occupancy
  Ga  Ga0  1  0.00000000  0.00000000  0.91250000  1.0
  Ga  Ga1  1  0.50000000  0.50000000  0.96250000  1.0
  Ga  Ga2  1  0.00000000  0.00000000  0.81250000  1.0
  Ga  Ga3  1  0.50000000  0.50000000  0.86250000  1.0
  Ga  Ga4  1  0.00000000  0.00000000  0.71250000  1.0
  Ga  Ga5  1  0.50000000  0.50000000  0.76250000  1.0
  Ga  Ga6  1  0.00000000  0.00000000  0.61250000  1.0
  Ga  Ga7  1  0.50000000  0.50000000  0.66250000  1.0
  Ga  Ga8  1  0.00000000  0.00000000  0.51250000  1.0
  Ga  Ga9  1  0.50000000  0.50000000  0.56250000  1.0
  Mn  Mn10  1  0.50000000  1.00000000  0.98750000  1.0
  Mn  Mn11  1  1.00000000  0.50000000  0.98750000  1.0
  Mn  Mn12  1  1.00000000  0.50000000  0.93750000  1.0
  Mn  Mn13  1  0.50000000  1.00000000  0.93750000  1.0
  Mn  Mn14  1  0.50000000  1.00000000  0.88750000  1.0
  Mn  Mn15  1  1.00000000  0.50000000  0.88750000  1.0
  Mn  Mn16  1  1.00000000  0.50000000  0.83750000  1.0
  Mn  Mn17  1  0.50000000  1.00000000  0.83750000  1.0
  Mn  Mn18  1  0.50000000  1.00000000  0.78750000  1.0
  Mn  Mn19  1  1.00000000  0.50000000  0.78750000  1.0
  Mn  Mn20  1  1.00000000  0.50000000  0.73750000  1.0
  Mn  Mn21  1  0.50000000  1.00000000  0.73750000  1.0
  Mn  Mn22  1  0.50000000  1.00000000  0.68750000  1.0
  Mn  Mn23  1  1.00000000  0.50000000  0.68750000  1.0
  Mn  Mn24  1  1.00000000  0.50000000  0.63750000  1.0
  Mn  Mn25  1  0.50000000  1.00000000  0.63750000  1.0
  Mn  Mn26  1  0.50000000  1.00000000  0.58750000  1.0
  Mn  Mn27  1  1.00000000  0.50000000  0.58750000  1.0
  Mn  Mn28  1  1.00000000  0.50000000  0.53750000  1.0
  Mn  Mn29  1  0.50000000  1.00000000  0.53750000  1.0
  V  V30  1  0.00000000  0.00000000  0.96250000  1.0
  V  V31  1  0.50000000  0.50000000  0.91250000  1.0
  V  V32  1  0.00000000  0.00000000  0.86250000  1.0
  V  V33  1  0.50000000  0.50000000  0.81250000  1.0
  V  V34  1  0.00000000  0.00000000  0.76250000  1.0
  V  V35  1  0.50000000  0.50000000  0.71250000  1.0
  V  V36  1  0.00000000  0.00000000  0.66250000  1.0
  V  V37  1  0.50000000  0.50000000  0.61250000  1.0
  V  V38  1  0.00000000  0.00000000  0.56250000  1.0
  V  V39  1  0.50000000  0.50000000  0.51250000  1.0
